Circuit: * C:\users\sharpe\Documents\Templates\Rowan\2023-Spring\Electronics\March07.asc

Warning: Multiple definitions of model "2scr375p" Type: BJT
Warning: Multiple definitions of model "bc857b" Type: BJT
Warning: Multiple definitions of model "bc847c" Type: BJT
Warning: Multiple definitions of model "bc847b" Type: BJT
Direct Newton iteration for .op point succeeded.

Date: Tue Mar  7 11:39:49 2023
Total elapsed time: 0.063 seconds.

tnom = 27
temp = 27
method = trap
totiter = 7
traniter = 0
tranpoints = 0
accept = 0
rejected = 0
matrix size = 8
fillins = 0
solver = Normal
Avg thread counts: 12.0/0.0/12.0/6.1
Matrix Compiler1:      20 opcodes
Matrix Compiler2: 594 bytes object code size
